LTspice 26.0.1 for Windows
Circuit: E:\Sync_Buck_convertor\simulations\compensator.net
Start Time: Sat Jun 27 16:39:32 2026
solver = Normal
Maximum thread count: 8
tnom = 27
temp = 27
method = trap
Compress1stOrder = true
Compress2ndOrder = true
C1: Increased Cpar to 2.777e-11
C2: Increased Cpar to 2.777e-11
C3: Increased Cpar to 2.777e-11
Direct Newton iteration succeeded in finding operating point.
Total elapsed time: 0.103 seconds.

Files loaded:
E:\Sync_Buck_convertor\simulations\compensator.net
C:\Users\User\AppData\Local\LTspice\lib\sub\UniversalOpAmp1.lib

