LTspice 26.0.1 for Windows
Circuit: E:\Sync_Buck_convertor\ltspice_simulation\sync_nuck_PMIC.net
Start Time: Sun Jun 21 11:49:24 2026
solver = Normal
Maximum thread count: 8
tnom = 27
temp = 27
method = trap
Compress1stOrder = true
Compress2ndOrder = true
Direct Newton iteration succeeded in finding operating point.
Total elapsed time: 0.524 seconds.

Files loaded:
E:\Sync_Buck_convertor\ltspice_simulation\sync_nuck_PMIC.net
E:\Sync_Buck_convertor\ltspice_simulation\OPAx376.LIB

